/*--------------------------------*- C++ -*----------------------------------*\
  =========                 |
  \\      /  F ield         | OpenFOAM: The Open Source CFD Toolbox
   \\    /   O peration     | Website:  https://openfoam.org
    \\  /    A nd           | Version:  7
     \\/     M anipulation  |
\*---------------------------------------------------------------------------*/
FoamFile
{
    version     2.0;
    format      ascii;
    class       dictionary;
    object      setRandomFieldDict;
}
// * * * * * * * * * * * * * * * * * * * * * * * * * * * * * * * * * * * * * //

field K;
type bitruncated;
correlation gaussian;
Lcorr           (5 5 0.5);
Kmean           0;
Ksigma          1;
nfreq 20;
nfreqz 50;
nfreqy 30;
printStats true;
disableY false;
disableZ false;
periodic false;
values (1e-8 1e-9 1e-9 1e-8 1e-7 1e-9 1e-10 1e-10 1e-10);
thresholds (-0.5244 0);
thresholds2 (1.0364 1.6449);
setFinalStats 0;
corrTol 1e-2;
