/*--------------------------------*- C++ -*----------------------------------*\
| =========                 |                                                 |
| \\      /  F ield         | foam-extend: Open Source CFD                    |
|  \\    /   O peration     | Version:     4.0                                |
|   \\  /    A nd           | Web:         http://www.foam-extend.org         |
|    \\/     M anipulation  |                                                 |
\*---------------------------------------------------------------------------*/
FoamFile
{
    version     2.0;
    format      ascii;
    class       dictionary;
    object      transportProperties;
}
// * * * * * * * * * * * * * * * * * * * * * * * * * * * * * * * * * * * * * //

transportModel  Newtonian;

mu              mu [1 -1 -1 0 0 0 0] 1e-3;
Dm              Dm [0 2 -1 0 0 0 0] 1e-9;
rho             rho [1 -3 0 0 0 0 0] 1;
phi             phi [0 0 0 0 0 0 0] 0.3;
alpha           alpha [0 1 0 0 0 0 0] 1e-3;
THRS 0.992; // Stop the simulation when concentration on the outlet is THRS
mTHRS 50; // Write concentration field at time Ti so that mass(Ti)-mass(Ti-1)=mTHRS
// ************************************************************************* //
