/*--------------------------------*- C++ -*----------------------------------*\
  =========                 |
  \\      /  F ield         | OpenFOAM: The Open Source CFD Toolbox
   \\    /   O peration     | Website:  https://openfoam.org
    \\  /    A nd           | Version:  7
     \\/     M anipulation  |
\*---------------------------------------------------------------------------*/
FoamFile
{
    version     2.0;
    format      ascii;
    class       dictionary;
    object      setRandomFieldDict;
}
// * * * * * * * * * * * * * * * * * * * * * * * * * * * * * * * * * * * * * //

field K;
type bitruncated;
correlation exponential;
Lcorr           (LcorrX LcorrY LcorrZ);
corrTol 1e-8;
nu 1;
disableY false;
disableZ false;
periodic true;
facePeriodicity false;
reset true;
additive false;
setFinalStats  false;
mu             0;
sigma          1;
nfreq 20;
maxLength (2 1 1);
maxLengthByL 4;
minLengthByL 0.25;
printStats true;
printLogStats true;
values (1e-9 1e-11 1e-13 1e-15);
thresholds (0);
thresholds2 (0.2);
