/*--------------------------------*- C++ -*----------------------------------*\
| =========                 |                                                 |
| \\      /  F ield         | foam-extend: Open Source CFD                    |
|  \\    /   O peration     | Version:     4.0                                |
|   \\  /    A nd           | Web:         http://www.foam-extend.org         |
|    \\/     M anipulation  |                                                 |
\*---------------------------------------------------------------------------*/
FoamFile
{
    version     2.0;
    format      ascii;
    class       volScalarField;
    object      T;
}
// * * * * * * * * * * * * * * * * * * * * * * * * * * * * * * * * * * * * * //

dimensions      [0 0 0 0 0 0 0];

internalField   uniform 0;

boundaryField
{
    inlet
    {
        type cyclic;         
        value uniform 1;
    }

    outlet
    {
        type cyclic;
    }

    upperWall
    {
        type cyclic;
    }
    lowerWall
    {
        type cyclic;
    }
    zMin
    {
        type cyclic;
    }
    zMax
    {
        type cyclic;
    }
}


// ************************************************************************* //
