/*--------------------------------*- C++ -*----------------------------------*\
  =========                 |
  \\      /  F ield         | OpenFOAM: The Open Source CFD Toolbox
   \\    /   O peration     | Website:  https://openfoam.org
    \\  /    A nd           | Version:  7
     \\/     M anipulation  |
\*---------------------------------------------------------------------------*/
FoamFile
{
    version     2.0;
    format      ascii;
    class       dictionary;
    object      setRandomFieldDict;
}
// * * * * * * * * * * * * * * * * * * * * * * * * * * * * * * * * * * * * * //

field K;
type bitruncated;
correlation exponential;
Lcorr           (1 1 1);
Kmean           0;
Ksigma          1;
nterms 1;
nfreq 20;
printStats true;
twoDimensional false;
values (1e-10 1e-9 1e-8 1e-7);
thresholds (0);
thresholds2 (0.2);
